/*--------------------------------*- C++ -*----------------------------------*\
| =========                 |                                                 |
| \\      /  F ield         | OpenFOAM: The Open Source CFD Toolbox           |
|  \\    /   O peration     | Version:  2.2.x                                 |
|   \\  /    A nd           | Web:      www.OpenFOAM.org                      |
|    \\/     M anipulation  |                                                 |
\*---------------------------------------------------------------------------*/
FoamFile
{
    version     2.0;
    format      ascii;
    class       dictionary;
    location    "constant";
    object      coarseningPostProcessing;
}
// * * * * * * * * * * * * * * * * * * * * * * * * * * * * * * * * * * * * * //

postProcessingProps
{
    rhoFluid        1.0;
    muFluid         0.005;
    fluidCoarsening
    {
        filterWidth             (3 5 7 9);
    }
    outputRelativePath      "./";
    filter                  box;
}
